@<TRIPOS>MOLECULE
IN4
   43    45     1     0     0
SMALL
bcc


@<TRIPOS>ATOM
      1 C           -1.2860     0.7340     0.3550 ce         1 IN4      -0.172400
      2 C1          -0.7590    -0.5770     0.8800 c6         1 IN4      -0.044200
      3 C2           0.4730    -0.3850     1.7590 c6         1 IN4      -0.074400
      4 C3           1.5660     0.3120     0.9510 c6         1 IN4      -0.044200
      5 C4           1.1040     1.6530     0.4390 ce         1 IN4      -0.172400
      6 C5          -0.3690     1.9180     0.3230 c          1 IN4       0.567500
      7 C6          -2.5560     0.9400    -0.1000 cf         1 IN4      -0.058200
      8 C7          -3.6420    -0.0170    -0.2590 ca         1 IN4      -0.038800
      9 C8           1.9170     2.6820     0.0640 cf         1 IN4      -0.058200
     10 C9           3.3670     2.7560    -0.0510 ca         1 IN4      -0.038800
     11 C10         -3.4390    -1.4110    -0.4230 ca         1 IN4      -0.130000
     12 C11         -4.5130    -2.2780    -0.5580 ca         1 IN4      -0.080500
     13 C12         -5.8310    -1.7850    -0.5350 ca         1 IN4      -0.191600
     14 C13         -6.0490    -0.4000    -0.4030 ca         1 IN4      -0.080500
     15 C14         -4.9720     0.4700    -0.2810 ca         1 IN4      -0.130000
     16 C15          4.2260     1.6320    -0.1940 ca         1 IN4      -0.130000
     17 C16          5.5950     1.8010    -0.3540 ca         1 IN4      -0.080500
     18 C17          6.1610     3.0910    -0.3550 ca         1 IN4      -0.191600
     19 C18          5.3230     4.2130    -0.2130 ca         1 IN4      -0.080500
     20 C19          3.9490     4.0470    -0.0780 ca         1 IN4      -0.130000
     21 O           -0.8100     3.0720     0.1490 o          1 IN4      -0.544100
     22 C20         -6.9810    -2.6900    -0.6590 c          1 IN4       0.574500
     23 C21          7.6060     3.3000    -0.5300 c          1 IN4       0.574500
     24 O1          -6.9000    -3.9170    -0.7920 o          1 IN4      -0.525100
     25 O2           8.4410     2.3990    -0.6680 o          1 IN4      -0.525100
     26 H           -1.5590    -1.0960     1.4300 hc         1 IN4       0.057200
     27 H1          -0.4830    -1.2380     0.0380 hc         1 IN4       0.057200
     28 H2           0.8310    -1.3600     2.1200 hc         1 IN4       0.050700
     29 H3           0.2150     0.2180     2.6450 hc         1 IN4       0.050700
     30 H4           1.8440    -0.3420     0.1040 hc         1 IN4       0.057200
     31 H5           2.4770     0.4430     1.5530 hc         1 IN4       0.057200
     32 H6          -2.8040     1.9740    -0.3590 ha         1 IN4       0.155000
     33 H7           1.3970     3.6120    -0.1840 ha         1 IN4       0.155000
     34 H8          -2.4310    -1.8130    -0.4830 ha         1 IN4       0.143000
     35 H9          -4.3480    -3.3470    -0.6930 ha         1 IN4       0.147000
     36 H10         -7.0730    -0.0160    -0.3990 ha         1 IN4       0.147000
     37 H11         -5.1460     1.5440    -0.1880 ha         1 IN4       0.143000
     38 H12          3.8120     0.6260    -0.2180 ha         1 IN4       0.143000
     39 H13          6.2470     0.9360    -0.4850 ha         1 IN4       0.147000
     40 H14          5.7590     5.2140    -0.2250 ha         1 IN4       0.147000
     41 H15          3.3000     4.9200     0.0120 ha         1 IN4       0.143000
     42 H16         -7.9760    -2.1930    -0.6230 h4         1 IN4       0.000200
     43 H17          7.9220     4.3690    -0.5380 h4         1 IN4       0.000200
@<TRIPOS>BOND
     1     1     2 1   
     2     1     6 1   
     3     1     7 2   
     4     2     3 1   
     5     2    26 1   
     6     2    27 1   
     7     3     4 1   
     8     3    28 1   
     9     3    29 1   
    10     4     5 1   
    11     4    30 1   
    12     4    31 1   
    13     5     6 1   
    14     5     9 2   
    15     6    21 2   
    16     7     8 1   
    17     7    32 1   
    18     8    11 ar  
    19     8    15 ar  
    20     9    10 1   
    21     9    33 1   
    22    10    16 ar  
    23    10    20 ar  
    24    11    12 ar  
    25    11    34 1   
    26    12    13 ar  
    27    12    35 1   
    28    13    14 ar  
    29    13    22 1   
    30    14    15 ar  
    31    14    36 1   
    32    15    37 1   
    33    16    17 ar  
    34    16    38 1   
    35    17    18 ar  
    36    17    39 1   
    37    18    19 ar  
    38    18    23 1   
    39    19    20 ar  
    40    19    40 1   
    41    20    41 1   
    42    22    24 2   
    43    22    42 1   
    44    23    25 2   
    45    23    43 1   
@<TRIPOS>SUBSTRUCTURE
     1 IN4         1 TEMP              0 ****  ****    0 ROOT
