@<TRIPOS>MOLECULE
IN3
   18    19     1     0     0
SMALL
bcc


@<TRIPOS>ATOM
      1 C            1.9930    -0.7910    -0.2610 ca         0 IN3      -0.052800
      2 C1           0.7180    -0.9360     0.0680 ca         0 IN3      -0.063200
      3 C2          -0.1990     0.2800     0.2290 ca         0 IN3      -0.141000
      4 C3           0.3570     1.5220     0.1140 ca         0 IN3      -0.114000
      5 C4           1.8810     1.6810    -0.1720 ca         0 IN3      -0.149000
      6 C5           2.6640     0.5800    -0.3560 ca         0 IN3      -0.076000
      7 C6           2.5700    -2.1720    -0.5280 cc         0 IN3      -0.253400
      8 C7           1.5500    -3.0500    -0.3720 cd         0 IN3      -0.045100
      9 H           -1.2430     0.1610     0.4310 ha         0 IN3       0.133000
     10 H1          -0.2560     2.3910     0.2250 ha         0 IN3       0.131000
     11 H2           2.3140     2.6580    -0.2300 ha         0 IN3       0.134000
     12 H3           3.7090     0.6720    -0.5650 ha         0 IN3       0.160000
     13 H4           1.5820    -4.0830    -0.6530 h4         0 IN3       0.169000
     14 N            0.3760    -2.3680     0.2390 na         0 IN3      -0.180400
     15 H5           0.3090    -2.5970     1.2100 hn         0 IN3       0.302700
     16 C8           4.0200    -2.5040    -0.9240 c          0 IN3       0.604100
     17 H6           4.3080    -3.5200    -1.0970 h4         0 IN3      -0.014800
     18 O            4.8670    -1.5810    -1.0450 o          0 IN3      -0.543100
@<TRIPOS>BOND
     1     1     2 ar  
     2     1     6 ar  
     3     1     7 1   
     4     2     3 ar  
     5     2    14 1   
     6     3     4 ar  
     7     3     9 1   
     8     4     5 ar  
     9     4    10 1   
    10     5     6 ar  
    11     5    11 1   
    12     6    12 1   
    13     7     8 2   
    14     7    16 1   
    15     8    13 1   
    16     8    14 1   
    17    14    15 1   
    18    16    17 1   
    19    16    18 2   
@<TRIPOS>SUBSTRUCTURE
     1 IN3         1 TEMP              0 ****  ****    0 ROOT
